6
0 1   
C          0.00000        0.00000       -0.00932
C          0.00000        0.00000        1.32978
H          0.92631        0.00000       -0.57491
H         -0.92631        0.00000       -0.57491
H          0.92631        0.00000        1.89537
H         -0.92631        0.00000        1.89537
