16
0 1
C 1.5783850000 0.1476900000 0.3438090000
H 1.3947500000 0.0129680000 1.4135450000
O 1.3599290000 -1.0862030000 -0.3597820000
C 0.6538450000 1.2150990000 -0.2213220000
H 1.0578270000 2.1802830000 0.0939240000
H 0.7296930000 1.1848640000 -1.3114380000
C -0.8173340000 1.1521270000 0.2081560000
H -1.3035250000 2.0657380000 -0.1458280000
H -0.8837650000 1.1597620000 1.2992600000
H 1.9841200000 -1.7344460000 -0.0213850000
H 2.6162860000 0.4589480000 0.2065440000
C -1.6277250000 -0.0340520000 -0.3113010000
H -2.6842290000 0.1510150000 -0.1185660000
H -1.5018680000 -0.1181460000 -1.3975060000
O -1.3242620000 -1.2601540000 0.3333770000
H -0.4176510000 -1.4753140000 0.0766370000
