23
0 1
N -1.3515389224 -0.6756823813 0.2007590723
C -0.1240242723 -0.0289465131 -0.1765024250
C 0.9836411084 -1.0720668406 -0.0255669669
O 0.7548017825 -2.1849878143 0.4452013354
C 0.1090360649 1.2092203944 0.7037104896
S 1.3097424547 2.3991153067 0.0285284068
H -1.2533823009 -1.6182925907 0.5506694156
H -0.1931745591 0.3008184791 -1.2157226092
H -0.8412973886 1.7188695033 0.8306436234
H 0.4856640874 0.9165885624 1.6834643094
C -2.5462311199 -0.1528425330 -0.1778333101
O -2.6265552975 0.9312957978 -0.7487484404
N 2.2045370357 -0.6829099448 -0.4379459670
C 3.3507527929 -1.5527920093 -0.2676120745
H 4.1814490416 -1.1527066525 -0.8404309926
H 3.6418414113 -1.6358261438 0.7789364580
H 3.1070723983 -2.5472163106 -0.6305107905
H 2.3307097522 0.2858888916 -0.6913251017
C -3.7581548964 -0.9858192270 0.1555652215
H -4.4651255978 -0.3677785177 0.7028893251
H -3.5184139737 -1.8695140871 0.7410257729
H -4.2355551811 -1.2883613322 -0.7739435703
H 0.5350055797 2.7967429625 -0.9876191817
