16
0 1
C 0.7832680000 0.7832680000 0.7832680000
C -0.7832680000 0.7832680000 0.7832680000
C -0.7832680000 0.7832680000 -0.7832680000
C 0.7832680000 0.7832680000 -0.7832680000
C 0.7832680000 -0.7832680000 0.7832680000
C -0.7832680000 -0.7832680000 0.7832680000
C -0.7832680000 -0.7832680000 -0.7832680000
C 0.7832680000 -0.7832680000 -0.7832680000
H 1.4102050000 -1.4102050000 1.4102050000
H 1.4102050000 1.4102050000 1.4102050000
H -1.4102050000 1.4102050000 1.4102050000
H -1.4102050000 -1.4102050000 1.4102050000
H -1.4102050000 1.4102050000 -1.4102050000
H -1.4102050000 -1.4102050000 -1.4102050000
H 1.4102050000 -1.4102050000 -1.4102050000
H 1.4102050000 1.4102050000 -1.4102050000
