48
0 1
O 1.3889256500 -1.4676230800 1.2326857100
H 0.4115574700 -1.4978182700 1.3233039500
H 1.6431280400 -0.5999394200 1.5883906100
O -1.2515158400 -4.4536012500 0.9920376400
H -0.2612980400 -4.4821386300 1.0215352000
H -1.5588963700 -5.2014691700 1.5130622900
O -1.4726779000 1.5942883500 -1.1304713100
H -1.5385174100 1.4530419900 -0.1611070200
H -1.6854408400 2.5363526700 -1.2550852400
O 1.2867772000 1.5214336800 -1.2698722600
H 1.5670121800 0.6651406000 -1.6335469800
H 0.3067837500 1.5109753000 -1.3319650000
O -1.3304908400 -1.1823078600 -1.5496047000
H -1.6185829500 -0.2650055300 -1.6898771900
H -0.3531291400 -1.1543783900 -1.6410212900
O -1.2624118100 -4.0086126100 -1.8367359300
H -1.5375414400 -3.0792122800 -1.8984117300
H -1.4416424300 -4.2558084200 -0.9132295700
O 1.2109380600 4.3364385500 -0.8813516200
H 1.4224061500 4.3592562800 0.0678024100
H 1.4825290600 3.4499172100 -1.1704211700
O -1.3683875700 -1.6525019100 1.1740300000
H -1.5378649900 -2.6026602000 1.3033113300
H -1.4677446500 -1.5141097400 0.2071081400
O 1.2989967500 4.0995975900 1.9708433000
H 1.6257268500 4.7063905700 2.6418974500
H 0.3104195900 4.1148942900 2.0396966900
O 1.4175830700 1.3342416100 1.4853498600
H 1.5933777300 2.2280709700 1.8293756200
H 1.4843255800 1.4285999800 0.5103870500
O 1.4138373400 -4.0437250400 -2.0135444300
H 1.7446672300 -4.6357006400 -2.6957396000
H 0.4250772500 -4.0991257300 -2.0528495600
O -1.3777070700 3.9556093600 1.8746629000
H -1.5951127100 4.1942796900 0.9571517600
H -1.6125611500 3.0158168900 1.9447344100
O -1.4695376600 4.3979516500 -0.9534820400
H -0.4826171900 4.4669418200 -1.0123502200
H -1.8226436600 5.1311577500 -1.4663071800
O 1.4315838500 -1.2764096600 -1.5253757100
H 1.6339728800 -2.1620468000 -1.8759601100
H 1.5308230400 -1.3680023800 -0.5529291900
O 1.4210759100 -4.2831832600 0.8402575200
H 1.6642391100 -3.3862594900 1.1224338800
H 1.6052648400 -4.2974398600 -0.1147160600
O -1.3368016100 1.1283887700 1.5909036200
H -1.5821606000 0.1999958200 1.7391046100
H -0.3568521000 1.1406701000 1.6536567400
