20
0 1
C 2.9143490000 23.7825110000 0.6830480000
C 2.7872870000 26.2545830000 0.6280490000
C 3.4272800000 25.1128970000 1.2516560000
H 3.2750430000 25.1772880000 2.3295010000
H 4.5052140000 25.1942330000 1.0938510000
H 3.1031050000 21.7764940000 0.9382310000
H 4.0399680000 22.7632350000 2.0639530000
N 3.4231290000 22.6915240000 1.2625850000
N 2.2824080000 27.1624280000 0.1355240000
O 2.1219530000 23.7560770000 -0.2619520000
C 5.5780160000 24.5312090000 4.1802960000
C 5.9590250000 25.6838750000 4.9713690000
C 5.5235470000 27.0017900000 4.3184990000
H 7.0333980000 25.6501210000 5.1478600000
H 5.4731210000 25.6038950000 5.9473230000
H 5.7456530000 29.0071290000 4.5225610000
H 6.6944050000 28.0380100000 5.6471540000
N 5.2700090000 23.6165850000 3.5559130000
N 6.0935120000 28.0971150000 4.8324600000
O 4.6991070000 27.0191410000 3.4022680000
