16
0 1
C 1.3920210000 -0.0057140000 0.5725480000
H 0.8716410000 -0.5320250000 1.3749760000
O 1.4882090000 -0.8510620000 -0.5845480000
C 0.6259630000 1.2469320000 0.1752580000
H 0.4397930000 1.8232530000 1.0852050000
H 1.2614370000 1.8586560000 -0.4678230000
C -0.7009020000 0.9854300000 -0.5488870000
H 2.0506900000 -1.5969320000 -0.3575900000
H 2.3894440000 0.2688840000 0.9235020000
C -1.6723010000 0.0647260000 0.1818970000
O -1.2721070000 -1.3041040000 0.1868240000
H -0.4698270000 -1.3711510000 -0.3436810000
H -2.6549160000 0.1361010000 -0.2909040000
H -1.7849730000 0.3915770000 1.2206940000
H -1.1968570000 1.9455780000 -0.7084200000
H -0.5039340000 0.5691400000 -1.5390660000
