10
0 1
N -0.0500720000 2.6341500000 3.3055780000
N -0.5084430000 1.6314790000 4.1786840000
C -0.0945230000 1.9498800000 5.4423430000
N 0.4287350000 3.2228140000 5.3565880000
C 0.4518610000 3.6544190000 4.0471480000
O -0.1827530000 1.2734100000 6.4626450000
O 0.8521260000 4.7472720000 3.6410430000
H -0.6023670000 2.8405820000 2.4637960000
H -0.4557050000 0.6674320000 3.8501190000
H 0.8455090000 3.7351840000 6.1493040000
