24
0 1
C 0.6137800000 4.8718440000 0.0000000000
C 2.9674710000 3.9122510000 0.0000000000
C 4.5260310000 1.9043730000 0.0000000000
C 4.8718440000 -0.6137800000 0.0000000000
C 3.9122510000 -2.9674710000 0.0000000000
C 1.9043730000 -4.5260310000 0.0000000000
C -0.6137800000 -4.8718440000 0.0000000000
C -2.9674710000 -3.9122510000 0.0000000000
C -4.5260310000 -1.9043730000 0.0000000000
C -4.8718440000 0.6137800000 0.0000000000
C -3.9122510000 2.9674710000 0.0000000000
C -1.9043730000 4.5260310000 0.0000000000
C 1.9043730000 4.5260310000 0.0000000000
C 3.9122510000 2.9674710000 0.0000000000
C 4.8718440000 0.6137800000 0.0000000000
C 4.5260310000 -1.9043730000 0.0000000000
C 2.9674710000 -3.9122510000 0.0000000000
C 0.6137800000 -4.8718440000 0.0000000000
C -1.9043730000 -4.5260310000 0.0000000000
C -3.9122510000 -2.9674710000 0.0000000000
C -4.8718440000 -0.6137800000 0.0000000000
C -4.5260310000 1.9043730000 0.0000000000
C -2.9674710000 3.9122510000 0.0000000000
C -0.6137800000 4.8718440000 0.0000000000
