60
0 1
O -8.0897410000 1.0742410000 2.6045970000
H -7.8975860000 1.1054510000 1.6674010000
H -9.0088930000 0.8113790000 2.6524970000
O -2.4915940000 2.3663020000 -2.8088380000
H -2.7189750000 1.4727410000 -3.0658990000
H -3.3288550000 2.7713790000 -2.5826980000
O -3.0823190000 -0.3267990000 -3.1643500000
H -2.3230320000 -0.5372290000 -2.6208100000
H -2.9912420000 -0.8906240000 -3.9324900000
O -5.1948770000 0.4703750000 -1.5759890000
H -4.5589350000 0.0517690000 -2.1561440000
H -5.1790720000 1.3934630000 -1.8287550000
O -7.3326040000 1.3735120000 0.0328960000
H -6.7914260000 0.8520780000 -0.5599500000
H -6.8500020000 2.1931830000 0.1399820000
O -0.9206260000 -0.6684170000 -1.6013040000
H -0.5419480000 0.2078210000 -1.5302970000
H -1.1405260000 -0.9084900000 -0.7011700000
O -0.2801660000 2.0209780000 -1.2939480000
H -1.0554710000 2.2411800000 -1.8103260000
H 0.4300200000 2.5135590000 -1.7053260000
O -3.5722370000 -0.8025060000 5.0224360000
H -3.3218910000 0.0496990000 5.3792370000
H -4.3811710000 -0.6323670000 4.5398270000
O -5.0780670000 3.1668540000 -2.1452610000
H -5.3230610000 3.4903460000 -1.2783330000
H -5.6505010000 3.6405090000 -2.7487520000
O -1.7237830000 -0.7900610000 1.0358970000
H -1.5873610000 -1.2202680000 1.8800200000
H -1.3902980000 0.0981830000 1.1625600000
O -1.3898920000 -1.5905690000 3.6501730000
H -2.1961110000 -1.3946210000 4.1275070000
H -1.0478580000 -2.3795910000 4.0705180000
O -5.8019480000 3.6254240000 0.4557440000
H -6.3128830000 3.8447570000 1.2348920000
H -4.9540890000 3.3409560000 0.7969870000
O -4.6898170000 2.5552050000 3.9897120000
H -4.0049540000 2.4243570000 4.6455130000
H -5.0589430000 1.6830190000 3.8508910000
O -4.3189440000 0.0137240000 0.9815530000
H -4.6123220000 0.0613710000 0.0716680000
H -3.4580640000 -0.4021140000 0.9346670000
O -0.9517520000 1.7918110000 1.3712490000
H -0.6365200000 1.9840600000 0.4881280000
H -1.8126940000 2.2078980000 1.4146310000
O -7.0315480000 3.6428180000 2.8935960000
H -7.5258430000 2.8231300000 2.8976540000
H -6.2615170000 3.4613840000 3.4324530000
O -2.6425100000 1.7444280000 5.6477820000
H -1.8798220000 1.5796570000 5.0933530000
H -2.2763110000 2.0790300000 6.4664230000
O -3.5603540000 2.5473710000 1.5180880000
H -3.8551960000 2.6701090000 2.4204380000
H -3.8325420000 1.6570450000 1.2956780000
O -5.6404780000 0.0783340000 3.3845680000
H -6.5559180000 0.2912590000 3.2032810000
H -5.2515200000 -0.0631070000 2.5214700000
O -0.5988060000 1.0499740000 4.0303350000
H -0.7194590000 0.1080820000 3.9098570000
H -0.5665500000 1.4034380000 3.1413710000
