14
0 1
C 0.0000000000 0.0000000000 0.3736830000
H 0.0000000000 0.0000000000 1.4688010000
C 0.0000000000 1.4550260000 -0.0955880000
C 1.2600900000 -0.7275130000 -0.0955880000
C -1.2600900000 -0.7275130000 -0.0955880000
H 0.0000000000 1.5070110000 -1.1873680000
H 1.3051100000 -0.7535050000 -1.1873680000
H -1.3051100000 -0.7535050000 -1.1873680000
H 0.8826070000 1.9880550000 0.2619650000
H -0.8826070000 1.9880550000 0.2619650000
H 1.2804030000 -1.7583870000 0.2619650000
H 2.1630100000 -0.2296680000 0.2619650000
H -2.1630100000 -0.2296680000 0.2619650000
H -1.2804030000 -1.7583870000 0.2619650000
