19
0 1
C -0.7785733370 -0.4633206420 2.4903876790
H 0.2247446240 -0.0509529370 2.4134835500
H -0.7224799430 -1.4870917960 2.8545846360
H -1.3519075730 0.1108169260 3.2136836480
C -1.5205025920 -0.4566276850 1.1723250000
O -2.7008352140 -0.7835857320 1.0895968160
N -0.7919536080 -0.0696404840 0.1005893710
H 0.1941116520 0.1457079040 0.2029246390
C -1.3977983430 -0.0560824480 -1.2113179280
H -2.3149280130 0.5288912100 -1.1997099140
H -0.6988042160 0.3872613040 -1.9153662130
H -1.6529823220 -1.0615289480 -1.5454349540
N 2.3585185740 0.2609773660 0.2872006790
H 2.7621848990 0.8008968940 1.0424007690
H 2.7765224470 0.6283586150 -0.5584452420
C 2.7308214130 -1.1502054480 0.4409534280
H 2.3045340130 -1.7212380330 -0.3804220220
H 3.8062200550 -1.3368948970 0.4667368250
H 2.2963488400 -1.5346124600 1.3607894290
