24
0 1
O -1.2924523235 1.9431422982 1.2226497219
O 0.0000000000 0.0000000000 2.1910180562
O 2.3290367552 0.1477253962 1.2226497219
O -1.0365844317 -2.0908676945 1.2226497219
O -0.1173737998 -2.3666396206 -1.1811465625
O 0.0000000000 0.0000000000 -2.1281500021
O 2.1082569330 1.0816711179 -1.1811465625
O -1.9908831332 1.2849685027 -1.1811465625
H -1.6121332079 1.7108040920 0.2902261256
H -2.0329920611 2.3268088497 1.6977144703
H -2.7471836531 0.6969876209 -1.2446979079
H -0.9985795430 -2.9240271955 1.6977144703
H -0.6755332007 -2.2515503583 0.2902261256
H -1.2036467944 0.7746315204 -1.6090999902
H -0.5575433437 0.7906310028 1.8329415765
H -0.4059348616 -0.8781622008 1.8329415765
H 1.9772008123 2.0306370220 -1.2446979079
H -0.0690271781 -1.4297044613 -1.6090999902
H 0.9634782053 0.0875311980 1.8329415765
H 0.7699828407 -2.7276246428 -1.2446979079
H 0.0000000000 0.0000000000 -3.0886303552
H 1.2726739724 0.6550729409 -1.6090999902
H 3.0315716042 0.5972183458 1.6977144703
H 2.2876664085 0.5407462663 0.2902261256
