31
0 1
N -0.9330059532 -1.0394222588 0.8478760372
C 0.1250327999 -0.0590270290 0.6234930394
C -0.4451080941 1.2530529595 0.0671948022
O 0.2002641217 1.9660333147 -0.6884955455
C 1.2645791524 -0.5752587519 -0.2548212991
C 2.6022875443 0.1214059475 0.0003335314
C 3.2096458897 -0.3075478604 1.3321303677
C 3.5657338652 -0.1909545458 -1.1381168236
H -0.8445030907 -1.6380594434 1.6522615781
H 0.5129191004 0.1853552645 1.6148120416
H 0.9741424923 -0.4584055497 -1.2975607587
H 1.3871691364 -1.6457659971 -0.0617133132
H 2.4212916075 1.1966979913 0.0125655807
H 3.4290642688 -1.3774419322 1.3191290976
H 4.1432776054 0.2213954758 1.5225699824
H 2.5482276588 -0.1121369762 2.1768623439
H 3.7221314389 -1.2688784527 -1.2191922216
H 4.5368609531 0.2756916679 -0.9728843687
H 3.1719989683 0.1664756604 -2.0886735996
N -1.6609409859 1.6001240525 0.5586988025
H -2.1943098198 0.8638925471 0.9876500205
C -2.3583046785 2.7401962426 0.0007147069
H -3.1861920889 3.0056577474 0.6519115665
H -1.6688454209 3.5762642676 -0.0636041864
H -2.7356942352 2.5309894303 -1.0006738694
C -1.6720973928 -1.5154060104 -0.2057498801
O -1.6585736070 -0.9728115121 -1.3003848621
C -2.5115886128 -2.7343836618 0.0936428827
H -2.6694640274 -2.8899241598 1.1584107105
H -2.0107507311 -3.6089010118 -0.3192318274
H -3.4689108649 -2.6310234160 -0.4082265364
