14
-2 1
S -0.0000010000 0.3397930000 0.0000000000
O -0.8154320000 1.1974010000 0.9232500000
O 0.8154250000 1.1974030000 -0.9232540000
O -0.9291970000 -0.5442080000 -0.8083350000
O 0.9292010000 -0.5442000000 0.8083380000
O 3.3669880000 0.6228810000 0.0026470000
H 2.6368490000 1.0346000000 -0.5087130000
H 2.7753570000 0.0304320000 0.5073770000
O -3.3669910000 0.6228600000 -0.0026470000
H -2.6368540000 1.0345860000 0.5087090000
H -2.7753570000 0.0304110000 -0.5073740000
O 0.0000110000 -3.0593140000 0.0000040000
H 0.5389100000 -2.3931400000 0.4738400000
H -0.5388930000 -2.3931450000 -0.4738340000
