12
0 1
N 1.3769011140 0.8397474670 0.7346249390
H 1.0518124050 1.3862238480 1.5233556280
C 1.3089827120 1.4575298130 -0.5206549960
O 0.9205613620 2.6110777650 -0.6259767310
N 2.0114229320 -1.2132083030 -0.0980718190
H 1.7272855110 0.9908426850 -2.6119955600
C 2.0257368710 -0.6971712290 -1.3643973990
H 2.2975169820 -1.3910600380 -2.1456453140
C 1.7145123490 0.5919377980 -1.6124872230
H 2.1294542160 -2.2015209050 0.0568291250
C 1.6459450310 -0.4852059770 1.0187183010
O 1.5611160180 -0.9718163760 2.1298090480
