15
0 1
O -1.3224300000 0.5903700000 0.9066300000
H -1.4552300000 -0.2079300000 0.3372300000
H -2.0491300000 0.5757700000 1.5407300000
O -1.3986300000 -1.6322300000 -0.6497700000
H -0.4482300000 -1.8954300000 -0.6796700000
H -1.6486300000 -1.5295300000 -1.5765700000
O 1.3057700000 -2.0024300000 -0.7233700000
H 1.8087700000 -2.6905300000 -0.2714700000
H 1.5576700000 -1.1606300000 -0.2737700000
O 1.6097700000 0.3571700000 0.6267300000
H 1.4614700000 1.1612700000 0.0942300000
H 0.7832700000 0.3221700000 1.1371300000
O 0.1634700000 2.5823700000 -0.4514700000
H 0.1686700000 3.4490700000 -0.0269700000
H -0.5365300000 2.0805700000 0.0103300000
