35
0 1
N 2.2788845642 -0.2925320782 -0.6260971241
H 3.2075590429 0.0140738465 -0.8623752873
C 1.2401103723 0.7158183739 -0.8302394228
H 1.4795738747 1.2056227889 -1.7754959687
C -0.1828238801 0.1772546033 -0.9423631093
C 1.3504259503 1.8727231239 0.1705071538
H -0.2017717549 -0.6210949292 -1.6850324527
H -0.4999337673 -0.2695331022 -0.0076385512
C -1.1415255624 1.2908242027 -1.3508694948
O 1.6099403640 2.9997552205 -0.2495448151
H -0.8549203285 1.6936475429 -2.3264575847
H -1.0773377091 2.1232447692 -0.6449306571
C -2.5920053717 0.8191227051 -1.4174476767
H -2.6739897130 -0.0355956791 -2.0865868778
H -3.2161888180 1.6110652788 -1.8313326769
N -3.1573378007 0.4503770614 -0.1218967611
H -3.1069671524 1.1969056361 0.5588480327
C -2.8026610116 -0.7361042397 0.5009345036
N -2.5108187367 -0.7292504530 1.7535251852
N -2.7879222339 -1.8276728368 -0.3586484530
H -2.4064430316 -1.6826115287 2.0913997978
H -2.6407577742 -2.7099483381 0.1028333250
H -3.5503545591 -1.8518491134 -1.0173065901
N 1.1448273140 1.6368806896 1.4870759490
C 0.7627338644 0.4147218642 2.1722323967
H 1.2007983467 2.4819423163 2.0353826091
H -0.2897626832 0.4251799664 2.4543997259
H 1.3763489269 0.2982803297 3.0642615044
H 0.9237508010 -0.4485960769 1.5385483713
C 2.1675720879 -1.5948720869 -0.2421975030
C 3.4685394324 -2.3676962225 -0.2893455072
O 1.1243097097 -2.1298466417 0.1151624447
H 4.3462919124 -1.7420275087 -0.4321992372
H 3.5679059092 -2.9266419794 0.6369114386
H 3.4103384154 -3.0860495049 -1.1049046871
