36
0 1
N 1.2606408336 0.9433469194 -0.1049518853
C 1.5775363593 -0.4589651409 0.0592067382
C 3.0433942580 -0.7664456002 -0.2739842502
O 3.4182814805 -1.9203060111 -0.4471702958
C 0.6453012599 -1.3844916592 -0.7372968494
H 1.2942479085 1.3027746636 -1.0504758092
H 1.4637782056 -0.7036611823 1.1156626399
H 0.6684763340 -1.0832572221 -1.7881623381
H 1.0587085047 -2.3905888536 -0.6835882733
C 0.4507053013 1.7179509729 0.7020663097
O 0.0589434984 2.8077070840 0.3148003627
N 3.8561005339 0.3138005378 -0.3297115597
H 3.4437675691 1.2042038482 -0.1068001765
C 5.2799280010 0.1909626506 -0.5519697427
H 5.6035117709 0.8678847084 -1.3393159624
H 5.8439543500 0.4046018446 0.3549163499
H 5.4742675817 -0.8335673416 -0.8535992581
C 0.1195728503 1.1715116566 2.0674939516
H 1.0140859293 0.8644277842 2.6080488680
H -0.5388859523 0.3075490252 1.9749587527
H -0.3885383154 1.9550462063 2.6191137337
C -0.7441850818 -1.3453109050 -0.2007176287
C -1.2522971816 -2.1887988985 0.7665195320
C -1.7673629030 -0.3822442283 -0.4710866260
H -0.7963658309 -3.0477068996 1.2324481605
C -2.8729449938 -0.6916657195 0.3677053328
C -1.8698441583 0.7140598218 -1.3446733782
H -3.1233463657 -2.2717926068 1.7565146176
C -3.0398693862 1.4533075800 -1.3570037316
H -1.0487501795 0.9834436482 -1.9955624927
N -2.5205686416 -1.7893325164 1.1134705294
C -4.0554439469 0.0516843298 0.3565212818
C -4.1219487217 1.1271530138 -0.5154759420
H -4.8877244888 -0.1983549383 1.0016633474
H -5.0201011775 1.7284902270 -0.5487959326
H -3.1249172051 2.3045352009 -2.0180563756
