20
-2 1
O 0.0001890000 1.2312310000 1.1268700000
S -0.0000070000 0.0000140000 0.2677890000
O 1.2325210000 -0.0002320000 -0.6084900000
O -1.2325380000 0.0001580000 -0.6084870000
O -0.0002010000 -1.2311040000 1.1270130000
H -1.6266280000 -2.2425210000 0.8882010000
O -2.4848920000 -2.3735740000 0.4407290000
H -2.4161230000 -1.5907930000 -0.1324840000
H 1.6266180000 2.2426230000 0.8879320000
O 2.4848790000 2.3736210000 0.4404380000
H 2.4161030000 1.5907720000 -0.1326810000
H -0.7226900000 -0.0000370000 -2.5269830000
O -0.0000100000 -0.0001920000 -3.1805380000
H 0.7226720000 -0.0002690000 -2.5269860000
H -2.4156240000 1.5915450000 -0.1326790000
O -2.4841360000 2.3744110000 0.4404490000
H -1.6259140000 2.2431260000 0.8879330000
H 1.6259040000 -2.2430220000 0.8881950000
O 2.4841260000 -2.3743610000 0.4407260000
H 2.4156130000 -1.5915640000 -0.1324960000
