20
0 1
C -1.2471894000 -1.1718212000 -0.6961388000
C -1.2471894000 -1.1718212000 0.6961388000
N -0.2589510000 -1.7235771000 1.4144796000
C 0.7315327000 -2.2652221000 0.6967288000
C 0.7315327000 -2.2652221000 -0.6967288000
N -0.2589510000 -1.7235771000 -1.4144796000
H -2.0634363000 -0.7223199000 -1.2472797000
H -2.0634363000 -0.7223199000 1.2472797000
H 1.5488004000 -2.7128282000 1.2475604000
H 1.5488004000 -2.7128282000 -1.2475604000
C -0.3380031000 2.0800608000 1.1300452000
C 0.8540254000 1.3593471000 1.1306308000
N 1.4701787000 0.9907598000 0.0000000000
C 0.8540254000 1.3593471000 -1.1306308000
C -0.3380031000 2.0800608000 -1.1300452000
N -0.9523059000 2.4528836000 0.0000000000
H -0.8103758000 2.3643033000 2.0618643000
H 1.3208583000 1.0670610000 2.0623986000
H 1.3208583000 1.0670610000 -2.0623986000
H -0.8103758000 2.3643033000 -2.0618643000
