28
0 1
  N   0.70462843177410     -0.90249014803405      0.43046495477667
  C   -0.48278785970872     -0.31012172747320     -0.17011849800666
  C   -0.54931629128646      1.15680234600657      0.26922430299012
  O   -1.21517192186676      1.52905379709689      1.23037561419492
  C   -1.74031000255360     -1.08179223691671      0.20494763651711
  C   -2.94492021102534     -0.46947125962657     -0.50165139593413
  C   -1.60649794231478     -2.55579188476118     -0.16103572166181
  H   0.63355681455901     -1.26963358062929      1.36494726991021
  H   -0.33099336425838     -0.35792065870381     -1.25033714226700
  H   -1.88302172254570     -0.97475621353313      1.28327853178395
  H   -3.08486019243975      0.57051435574613     -0.21755168955092
  H   -3.85167048411084     -1.01662431438161     -0.24705698831324
  H   -2.81562037653568     -0.52595231332819     -1.58422348998885
  H   -0.77574034059431     -3.03840213021516      0.35016871024793
  H   -2.51862133767103     -3.09281544182565      0.09621706238583
  H   -1.44547001763588     -2.66536032722599     -1.23497508740459
  N   0.22429532928556      1.97477739561407     -0.48178465736024
  H   0.89248249928498      1.52083145607797     -1.09171171484041
  C   0.42362140682665      3.35587721050628     -0.09589005382498
  H   1.16915927901033      3.45674976665468      0.69372492998368
  H   0.74175673985331      3.92823126461461     -0.96230586109313
  H   -0.51711109787816      3.75124183525760      0.27469770805552
  C   1.93170191744703     -0.76651202982472     -0.13270546991135
  O   2.10585461512162     -0.17250130554731     -1.19652935157894
  C   3.07155087613958     -1.41065529054258      0.61439834399133
  H   3.53261792633180     -2.15099763286599     -0.03509501299305
  H   2.76262066727754     -1.88930084404739      1.54025906242918
  H   3.81820165951387     -0.65055408809225      0.83102200746286
