28
0 1
  N   1.14593846557243     -0.15273121415271      0.87207926666842
  C   -0.11074302698746      0.57697120189772      0.69897152468530
  C   -1.31995385612874     -0.35573638872237      0.57711348951971
  O   -2.23267448248359     -0.31998077862720      1.39787102979663
  C   -0.05909002945029      1.61996351091843     -0.42518624989718
  C   -1.38448670498738      2.37257661374724     -0.47126847222220
  C   1.09962586143925      2.58358834478484     -0.20582890439936
  H   1.55257627488725     -0.14508030129511      1.79070032259796
  H   -0.27427834090767      1.10781707035605      1.63734544261989
  H   0.08883331869850      1.10060665052588     -1.37133401986997
  H   -2.22258964622096      1.70638336939541     -0.66871323658835
  H   -1.35941816295989      3.12793628674951     -1.25561074647591
  H   -1.57448923873350      2.87668091877997      0.47781855856126
  H   2.05921538094672      2.06958146113367     -0.20125063087718
  H   1.12422297517155      3.33262451429727     -0.99636369552607
  H   0.98667110688787      3.10681238538838      0.74625949786994
  N   -1.31478967342205     -1.16150436475724     -0.50525958238024
  H   -0.46741753411893     -1.19657812550708     -1.06110210538764
  C   -2.38695625932242     -2.11003165474674     -0.71386652686610
  H   -3.34238815402804     -1.61966259409530     -0.54723664149497
  H   -2.34053362426036     -2.47562410061922     -1.73533470966978
  H   -2.32078354750926     -2.95542626877962     -0.02852802937056
  C   1.81431559047213     -0.83172077692881     -0.08965099983946
  O   1.39838551508443     -0.96388432248407     -1.24184734114403
  C   3.13289166406017     -1.42971118468735      0.33639231418258
  H   3.91397476237124     -1.02242604312759     -0.30132916568856
  H   3.09593373643319     -2.50308405541997      0.16634817072837
  H   3.38238962949582     -1.23790615402401      1.37677244046750
