26
0 1
  N   0.98082235146789      0.12149899599457     -0.07260114495329
  C   -0.07660245278646      0.45963715188428      0.87252892434655
  C   -1.46887835857065     -0.03516660231286      0.47434018587098
  O   -2.42717958193312      0.16803627942005      1.20995242193606
  C   -0.04782694657294      1.99205678583971      0.87871827465322
  C   0.33544772487702      2.31794281207271     -0.56407145801223
  C   1.40432187735448      1.27483967724421     -0.87541292980289
  H   0.12218806216618      0.05461542023515      1.86317589734643
  H   -1.00096389652391      2.40457364491940      1.19815450622141
  H   0.73224917108702      2.33389644547964      1.55944255483563
  H   -0.52670430287111      2.18137347335384     -1.21715760639891
  H   0.70131020837413      3.33380376984913     -0.69137838577282
  H   1.46528509189574      1.00737634302107     -1.92849552611314
  H   2.39910518496179      1.59585215728173     -0.56020770099582
  N   -1.53543795008843     -0.67358748988278     -0.71675721407602
  H   -0.67295495125823     -0.77563775166701     -1.22548461718523
  C   -2.77680245699036     -1.19762301164602     -1.24229513865678
  H   -2.69514023998995     -2.26463415381560     -1.43911251911356
  H   -3.54142867681472     -1.02825951571085     -0.49013840949179
  H   -3.06198549249609     -0.68778993027498     -2.16088703175370
  C   1.78024179401750     -0.98878356870357     -0.01936601680012
  O   2.76825840216912     -1.09029004875471     -0.73738120475458
  C   1.36416098136244     -2.06386690492998      0.95658313602225
  H   1.91042137168095     -2.96862660611224      0.71225944561636
  H   0.29332877454992     -2.25540165688738      0.92555939195511
  H   1.62279431093178     -1.76450271589750      1.97248516507687
