34
0 1
C  0.0  0.0  2.31007135089
C  -1.24716890272  0.720053301708  1.79458107379
H  -2.14734139724  0.222049316339  2.16658494882
C  -1.24721528422  0.720080080082  0.266384439341
H  -1.26597104746  1.74862754244  2.16658494882
C  0.0  -1.44010660342  1.79458107379
H  0.0  0.0  3.40253776144
C  1.24716890272  0.720053301708  1.79458107379
C  -1.24721528422  -0.720080080082  -0.266384439341
C  0.0  1.44016016016  -0.266384439341
H  -2.14021938665  1.23565623901  -0.103949216098
H  -2.14021938665  -1.23565623901  0.103949216098
C  0.0  0.0  -2.31007135089
C  -1.24716890272  -0.720053301708  -1.79458107379
C  0.0  1.44010660342  -1.79458107379
H  -0.881370349778  1.97067685878  -2.16658494882
H  0.0  2.47131247802  0.103949216098
H  -0.881370349778  -1.97067685878  2.16658494882
H  0.881370349778  -1.97067685878  2.16658494882
C  0.0  -1.44016016016  0.266384439341
H  2.14734139724  0.222049316339  2.16658494882
H  1.26597104746  1.74862754244  2.16658494882
C  1.24721528422  0.720080080082  0.266384439341
H  -1.26597104746  -1.74862754244  -2.16658494882
H  2.14734139724  -0.222049316339  -2.16658494882
H  0.0  -2.47131247802  -0.103949216098
H  2.14021938665  1.23565623901  -0.103949216098
C  1.24721528422  -0.720080080082  -0.266384439341
H  -2.14734139724  -0.222049316339  -2.16658494882
C  1.24716890272  -0.720053301708  -1.79458107379
H  0.881370349778  1.97067685878  -2.16658494882
H  0.0  0.0  -3.40253776144
H  2.14021938665  -1.23565623901  0.103949216098
H  1.26597104746  -1.74862754244  -2.16658494882
