8
0 1
C  0.0  0.0  -0.761689436655
C  0.0  0.0  0.761689436655
H  -0.878600322256  0.507260132565  -1.15576505924
H  0.0  -1.01452026513  -1.15576505924
H  0.878600322256  0.507260132565  -1.15576505924
H  -0.878600322256  -0.507260132565  1.15576505924
H  0.0  1.01452026513  1.15576505924
H  0.878600322256  -0.507260132565  1.15576505924
