14
0, 2
C -1.945130  0.930240 -0.034904 
H -1.297993  0.412352 -0.731786
H -3.005829  0.889974 -0.237078
C -1.446735  1.604426  1.049330
C -0.106833  1.712848  1.391443
H -2.159234  2.097973  1.703228
H  0.151386  2.273896  2.284018
C  1.012184  1.103577  0.621485
C  2.383350  1.447258  1.168938
H  0.942277  1.409191 -0.428893
H  0.885785  0.014298  0.594468
H  3.178114  0.985385  0.586139
H  2.552744  2.523978  1.161466
H  2.492560  1.109416  2.199568
