10
0 1
C  -1.8353011953  -0.118160965582  0.0
C  -0.60658137394  0.396479528929  0.0
C  0.60658137394  -0.396479528929  0.0
C  1.8353011953  0.118160965582  0.0
H  -1.99610187822  -1.19153748354  0.0
H  -2.71599519755  0.512167541903  0.0
H  -0.477872925175  1.47682193736  0.0
H  0.477872925175  -1.47682193736  0.0
H  1.99610187822  1.19153748354  0.0
H  2.71599519755  -0.512167541903  0.0
