20
0 1
C     1.9665666    0.0000000   -0.6998649 
C     1.1780212    1.1800989   -1.1195820 
C     0.0000000    0.7198623   -1.8110851 
C     0.0000000   -0.7198623   -1.8110851 
C     1.1780212   -1.1800989   -1.1195820 
C    -1.1780212    1.1800989   -1.1195820 
C    -1.9665666    0.0000000   -0.6998649 
C    -1.1780212   -1.1800989   -1.1195820 
C    -0.7637258    1.9514898    0.0000000 
C    -1.1780212    1.1800989    1.1195820 
C    -1.9665666    0.0000000    0.6998649 
C    -0.7637258   -1.9514898    0.0000000 
C    -1.1780212   -1.1800989    1.1195820 
C     0.0000000   -0.7198623    1.8110851 
C     0.0000000    0.7198623    1.8110851 
C     0.7637258    1.9514898    0.0000000 
C     1.1780212    1.1800989    1.1195820 
C     0.7637258   -1.9514898    0.0000000 
C     1.1780212   -1.1800989    1.1195820 
C     1.9665666    0.0000000    0.6998649 
