18
0, 1
C  2.775589 -0.346686 -0.122933
C  1.452569 -0.327470  0.629207
H  3.340580  0.569663  0.049988
H  3.401163 -1.182486  0.187720
H  2.616239 -0.429717 -1.197689
H  0.914187 -1.260154  0.455665
H  1.658835 -0.298898  1.704048
C  0.607652  0.847686  0.267930
C -0.608590  0.846601 -0.270736
H  1.067994  1.813688  0.461946
H -1.069333  1.811807 -0.467736
C -1.452999 -0.330019 -0.628417
C -2.776046 -0.347456  0.123711
H -0.914236 -1.261936 -0.451960
H -1.659220 -0.304866 -1.703353
H -3.401256 -1.184474 -0.184385
H -2.616720 -0.427094  1.198727
H -3.341411  0.568118 -0.052074
