44
0 1
C  4.2349837295  -0.881484967806  2.26035240671
C  4.20665722564  -0.214901757516  3.49305691041
C  3.13772700048  0.637663578197  3.79031753523
C  2.1152649602  0.826499376377  2.85979374057
C  2.14362277512  0.187865510222  1.59976078845
C  3.21968311148  -0.686576407104  1.32630332882
C  1.02866045886  0.412561901248  0.682473591933
C  0.981173517218  0.305902232717  -0.680328898005
C  -0.282732938451  0.407518833305  -1.4056001427
C  -1.52097068968  0.0117121674745  -0.99006541158
C  -1.82702979639  -0.754218661337  0.191885180593
C  -3.05737726426  -0.992413907908  0.724025387745
C  -6.77979835622  -0.6228552321  0.287048743195
C  -5.52571305779  -1.12987752133  0.625081799094
C  -4.34390261583  -0.401669495886  0.358447321311
C  -4.47735915434  0.881218847945  -0.219039452088
C  -5.73356432405  1.38956783487  -0.552035763614
C  -6.89013831922  0.638846989104  -0.310322504001
C  4.42966416638  0.87327588287  -2.17667742682
C  3.3051983851  1.00159088025  -1.36119092461
C  2.19371178916  0.156912074247  -1.53304622121
C  2.22985621537  -0.803759082122  -2.55856922825
C  3.35959324462  -0.938922535776  -3.37137777404
C  4.46393551052  -0.10211575868  -3.18162219174
H  5.05146575696  -1.56371138651  2.03028003656
H  5.00314766036  -0.369754532074  4.21830429943
H  3.0977124663  1.14992268591  4.74992851631
H  1.27921973931  1.48324441197  3.09741300433
H  3.24847758265  -1.2181282135  0.380538255707
H  0.103956982587  0.719079931353  1.17085579524
H  -0.207956893785  0.820908180541  -2.41222291298
H  -2.35461159205  0.225139102396  -1.65876483174
H  -0.979660577972  -1.24864257876  0.668394005931
H  -3.10858787755  -1.73436959226  1.52259750158
H  -7.6736935797  -1.20880471937  0.493328990222
H  -5.44433421934  -2.11093656956  1.09142823953
H  -3.59278063988  1.49311360043  -0.36944849156
H  -5.81213047624  2.38351040515  -0.98915569407
H  -7.8681669156  1.03956044001  -0.569355027751
H  5.2803057586  1.53682180202  -2.03187767871
H  3.27859722553  1.75399469117  -0.576939529399
H  1.36935217152  -1.45414558385  -2.70459844098
H  3.37617568854  -1.69618903106  -4.15315992143
H  5.34236616632  -0.202953825258  -3.81621691163
