44
0 1
C  0.0750988435226  1.31682877595  -1.30920898941
C  -1.20804599687  0.583151075732  -1.22894056847
C  -1.04310754097  -0.402605554819  -0.0948519272336
C  0.401914302261  -0.278928418583  0.418759701917
C  0.964537840555  0.911413973795  -0.371495597634
C  2.77463796169  2.60165948217  -0.801652667956
C  2.28358031491  1.48675033383  -0.085744382769
C  3.10734763258  0.941064322385  0.920664677825
C  4.36581815253  1.48150185206  1.19646465887
C  4.83629497879  2.58123820916  0.474209667463
C  4.03071202086  3.13794113168  -0.52875416587
C  1.61741496908  -1.93794328191  -1.07570041514
C  1.16813332641  -1.5753060035  0.201900032446
C  1.39166691123  -2.45267969823  1.27180954174
C  2.05554922889  -3.66775506967  1.07440673272
C  2.501988326  -4.02050331303  -0.203408554896
C  2.27967373363  -3.15150794052  -1.27813430661
C  -5.62864966758  1.23111503975  0.999552927103
C  -6.24723764092  0.223065186169  0.252603074326
C  -5.46514541367  -0.614585344906  -0.551293989449
C  -4.07994957772  -0.447023241451  -0.606496044698
C  -3.44533845502  0.563260857953  0.140275733318
C  -4.24255747167  1.39944216943  0.941173026147
C  -1.97642173654  0.771914278178  0.0984156854825
H  0.237246227338  2.12929338727  -2.01302648347
H  -1.80501307443  0.374302904881  -2.11502865646
H  -1.49028276758  -1.39260487535  -0.138268014067
H  0.405393907246  -0.0546335822599  1.49541460989
H  2.16175143033  3.05318108076  -1.57834049133
H  2.76616173677  0.0767026205762  1.4824352886
H  4.98072506291  1.0375184356  1.9773377398
H  5.8166294415  3.00245770891  0.688098449999
H  4.38386627287  3.99690894052  -1.09678047023
H  1.45421691249  -1.25362742751  -1.90580007326
H  1.04417315601  -2.17603663599  2.26713034284
H  2.22576797936  -4.33623434257  1.91662509975
H  3.02179750059  -4.96370375689  -0.36050718766
H  2.62771062637  -3.41836706821  -2.27459206403
H  -6.22602449792  1.88893684551  1.62848671672
H  -7.32648035967  0.0908597493369  0.295709053619
H  -5.9360580778  -1.40234387568  -1.13687786573
H  -3.48411755688  -1.10632184233  -1.23487279174
H  -3.76526881992  2.18722053989  1.52275662875
H  -1.61011014158  1.5849823719  0.725546318793
