8
0 1
SI    0.0000000    0.0000000    1.1609054 
SI    0.0000000    0.0000000   -1.1609054 
H     1.1970290    0.6911050    1.6779620 
H     0.0000000   -1.3822101    1.6779620 
H    -1.1970290    0.6911050    1.6779620 
H     1.1970290   -0.6911050   -1.6779620 
H     0.0000000    1.3822101   -1.6779620 
H    -1.1970290   -0.6911050   -1.6779620 
