          39
0 1
   H          1.98627151     -3.30615786     -1.71802261
   C          2.69386293     -3.01376663     -0.93795383
   H          3.68671915     -2.88854822     -1.37723855
   H          2.73012327     -3.82959044     -0.20949065
   C          2.17335319     -1.76811509     -0.24685331
   O          0.99539210     -1.65735170      0.09228530
   N          3.08227257     -0.76731096     -0.04095186
   H          4.05367895     -0.97694608     -0.22655548
   C          2.81245508      0.36822768      0.85034645
   H          2.59355352     -0.00070197      1.85866535
   C          4.02906247      1.29629199      0.89554840
   H          4.26359946      1.69674332     -0.09551023
   H          3.82360691      2.13537583      1.56451932
   H          4.90928567      0.76817896      1.27868937
   C          1.54111448      1.14233802      0.45194972
   O          0.75646629      1.53346121      1.30308108
   N          1.42232071      1.44672765     -0.86956333
   H          2.06279973      1.01256078     -1.51798212
   C          0.27326790      2.18489363     -1.38075578
   H          0.23453056      3.18123260     -0.93493085
   H          0.39234418      2.28933288     -2.46265373
   C         -1.10043987      1.54550779     -1.08966504
   O         -2.05678315      2.24455660     -0.80017112
   N         -1.19115111      0.20489889     -1.35403267
   H         -0.32743048     -0.32449838     -1.31419329
   C         -2.41047798     -0.53935227     -1.02146840
   H         -3.24028914     -0.06097331     -1.54484194
   C         -2.27004720     -1.99344685     -1.47705799
   H         -1.42814360     -2.48177535     -0.97613051
   H         -3.18289112     -2.54416747     -1.23233934
   H         -2.11502961     -2.04468770     -2.55933800
   C         -2.82319050     -0.46481793      0.46861005
   O         -4.00439669     -0.33864659      0.77235049
   N         -1.82105647     -0.68193503      1.36453215
   H         -0.86541797     -0.68675122      1.03514276
   C         -2.03345211     -0.55846577      2.79514180
   H         -3.10390746     -0.42831603      2.96070682
   H         -1.69641281     -1.45944163      3.32138215
   H         -1.49658833      0.30764520      3.19749481
